/*--------------------------------*- C++ -*----------------------------------*\
  =========                 |
  \\      /  F ield         | OpenFOAM: The Open Source CFD Toolbox
   \\    /   O peration     | Website:  https://openfoam.org
    \\  /    A nd           | Version:  7
     \\/     M anipulation  |
\*---------------------------------------------------------------------------*/
FoamFile
{
    version     2.0;
    format      ascii;
    class       volScalarField;
    object      omega;
}
// * * * * * * * * * * * * * * * * * * * * * * * * * * * * * * * * * * * * * //

#include        "include/initialConditions"

dimensions      [0 0 -1 0 0 0 0];

internalField   uniform $turbulentOmega;

boundaryField
{
    //- Set patchGroups for constraint patches
    #includeEtc "caseDicts/setConstraintTypes"

    AortaOutlet
    {
        type            inletOutlet;
        inletValue      $internalField;
        value           $internalField;
    }

    AortaInlet
    {
        type            inletOutlet;
        inletValue      $internalField;
        value           $internalField;
    }


    AortaWall
    {
        type            omegaWallFunction;
        value           $internalField;
    }

    


// ************************************************************************* //
